<?xml version="1.0" encoding="UTF-8"?>

<!-- generated on 2025-11-03 10:44:12 by Eclipse SUMO netconvert Version 1.24.0
<netconvertConfiguration xmlns:xsi="http://www.w3.org/2001/XMLSchema-instance" xsi:noNamespaceSchemaLocation="http://sumo.dlr.de/xsd/netconvertConfiguration.xsd">

    <input>
        <node-files value="nodes.nod.xml"/>
        <edge-files value="edges.edg.xml"/>
    </input>

    <output>
        <output-file value="grid3x3.net.xml"/>
    </output>

</netconvertConfiguration>
-->

<net version="1.20" junctionCornerDetail="5" limitTurnSpeed="5.50" xmlns:xsi="http://www.w3.org/2001/XMLSchema-instance" xsi:noNamespaceSchemaLocation="http://sumo.dlr.de/xsd/net_file.xsd">

    <location netOffset="0.00,200.00" convBoundary="0.00,0.00,800.00,1000.00" origBoundary="0.00,-200.00,800.00,800.00" projParameter="!"/>

    <edge id=":n00_0" function="internal">
        <lane id=":n00_0_0" index="0" speed="6.51" length="9.03" shape="195.20,810.40 194.85,807.95 193.80,806.20 192.05,805.15 189.60,804.80"/>
    </edge>
    <edge id=":n00_1" function="internal">
        <lane id=":n00_1_0" index="0" speed="13.90" length="20.80" shape="195.20,810.40 195.20,789.60"/>
        <lane id=":n00_1_1" index="1" speed="13.90" length="20.80" shape="198.40,810.40 198.40,789.60"/>
    </edge>
    <edge id=":n00_3" function="internal">
        <lane id=":n00_3_0" index="0" speed="9.26" length="5.01" shape="198.40,810.40 199.11,805.44"/>
    </edge>
    <edge id=":n00_4" function="internal">
        <lane id=":n00_4_0" index="0" speed="3.65" length="1.44" shape="198.40,810.40 199.20,809.20"/>
    </edge>
    <edge id=":n00_20" function="internal">
        <lane id=":n00_20_0" index="0" speed="9.26" length="14.34" shape="199.11,805.44 199.15,805.15 201.40,801.40 205.15,799.15 210.40,798.40"/>
    </edge>
    <edge id=":n00_21" function="internal">
        <lane id=":n00_21_0" index="0" speed="3.65" length="3.23" shape="199.20,809.20 200.00,808.80 200.80,809.20 201.60,810.40"/>
    </edge>
    <edge id=":n00_5" function="internal">
        <lane id=":n00_5_0" index="0" speed="6.51" length="9.03" shape="210.40,804.80 207.95,805.15 206.20,806.20 205.15,807.95 204.80,810.40"/>
    </edge>
    <edge id=":n00_6" function="internal">
        <lane id=":n00_6_0" index="0" speed="13.90" length="20.80" shape="210.40,804.80 189.60,804.80"/>
        <lane id=":n00_6_1" index="1" speed="13.90" length="20.80" shape="210.40,801.60 189.60,801.60"/>
    </edge>
    <edge id=":n00_8" function="internal">
        <lane id=":n00_8_0" index="0" speed="9.26" length="5.01" shape="210.40,801.60 205.44,800.89"/>
    </edge>
    <edge id=":n00_9" function="internal">
        <lane id=":n00_9_0" index="0" speed="3.65" length="1.44" shape="210.40,801.60 209.20,800.80"/>
    </edge>
    <edge id=":n00_22" function="internal">
        <lane id=":n00_22_0" index="0" speed="9.26" length="14.34" shape="205.44,800.89 205.15,800.85 201.40,798.60 199.15,794.85 198.40,789.60"/>
    </edge>
    <edge id=":n00_23" function="internal">
        <lane id=":n00_23_0" index="0" speed="3.65" length="3.23" shape="209.20,800.80 208.80,800.00 209.20,799.20 210.40,798.40"/>
    </edge>
    <edge id=":n00_10" function="internal">
        <lane id=":n00_10_0" index="0" speed="6.51" length="9.03" shape="204.80,789.60 205.15,792.05 206.20,793.80 207.95,794.85 210.40,795.20"/>
    </edge>
    <edge id=":n00_11" function="internal">
        <lane id=":n00_11_0" index="0" speed="13.90" length="20.80" shape="204.80,789.60 204.80,810.40"/>
        <lane id=":n00_11_1" index="1" speed="13.90" length="20.80" shape="201.60,789.60 201.60,810.40"/>
    </edge>
    <edge id=":n00_13" function="internal">
        <lane id=":n00_13_0" index="0" speed="9.26" length="5.01" shape="201.60,789.60 200.89,794.56"/>
    </edge>
    <edge id=":n00_14" function="internal">
        <lane id=":n00_14_0" index="0" speed="3.65" length="1.44" shape="201.60,789.60 200.80,790.80"/>
    </edge>
    <edge id=":n00_24" function="internal">
        <lane id=":n00_24_0" index="0" speed="9.26" length="14.34" shape="200.89,794.56 200.85,794.85 198.60,798.60 194.85,800.85 189.60,801.60"/>
    </edge>
    <edge id=":n00_25" function="internal">
        <lane id=":n00_25_0" index="0" speed="3.65" length="3.23" shape="200.80,790.80 200.00,791.20 199.20,790.80 198.40,789.60"/>
    </edge>
    <edge id=":n00_15" function="internal">
        <lane id=":n00_15_0" index="0" speed="6.51" length="9.03" shape="189.60,795.20 192.05,794.85 193.80,793.80 194.85,792.05 195.20,789.60"/>
    </edge>
    <edge id=":n00_16" function="internal">
        <lane id=":n00_16_0" index="0" speed="13.90" length="20.80" shape="189.60,795.20 210.40,795.20"/>
        <lane id=":n00_16_1" index="1" speed="13.90" length="20.80" shape="189.60,798.40 210.40,798.40"/>
    </edge>
    <edge id=":n00_18" function="internal">
        <lane id=":n00_18_0" index="0" speed="9.26" length="5.01" shape="189.60,798.40 194.56,799.11"/>
    </edge>
    <edge id=":n00_19" function="internal">
        <lane id=":n00_19_0" index="0" speed="3.65" length="1.44" shape="189.60,798.40 190.80,799.20"/>
    </edge>
    <edge id=":n00_26" function="internal">
        <lane id=":n00_26_0" index="0" speed="9.26" length="14.34" shape="194.56,799.11 194.85,799.15 198.60,801.40 200.85,805.15 201.60,810.40"/>
    </edge>
    <edge id=":n00_27" function="internal">
        <lane id=":n00_27_0" index="0" speed="3.65" length="3.23" shape="190.80,799.20 191.20,800.00 190.80,800.80 189.60,801.60"/>
    </edge>
    <edge id=":n01_0" function="internal">
        <lane id=":n01_0_0" index="0" speed="6.51" length="9.03" shape="395.20,810.40 394.85,807.95 393.80,806.20 392.05,805.15 389.60,804.80"/>
    </edge>
    <edge id=":n01_1" function="internal">
        <lane id=":n01_1_0" index="0" speed="13.90" length="20.80" shape="395.20,810.40 395.20,789.60"/>
        <lane id=":n01_1_1" index="1" speed="13.90" length="20.80" shape="398.40,810.40 398.40,789.60"/>
    </edge>
    <edge id=":n01_3" function="internal">
        <lane id=":n01_3_0" index="0" speed="9.26" length="5.01" shape="398.40,810.40 399.11,805.44"/>
    </edge>
    <edge id=":n01_4" function="internal">
        <lane id=":n01_4_0" index="0" speed="3.65" length="1.44" shape="398.40,810.40 399.20,809.20"/>
    </edge>
    <edge id=":n01_20" function="internal">
        <lane id=":n01_20_0" index="0" speed="9.26" length="14.34" shape="399.11,805.44 399.15,805.15 401.40,801.40 405.15,799.15 410.40,798.40"/>
    </edge>
    <edge id=":n01_21" function="internal">
        <lane id=":n01_21_0" index="0" speed="3.65" length="3.23" shape="399.20,809.20 400.00,808.80 400.80,809.20 401.60,810.40"/>
    </edge>
    <edge id=":n01_5" function="internal">
        <lane id=":n01_5_0" index="0" speed="6.51" length="9.03" shape="410.40,804.80 407.95,805.15 406.20,806.20 405.15,807.95 404.80,810.40"/>
    </edge>
    <edge id=":n01_6" function="internal">
        <lane id=":n01_6_0" index="0" speed="13.90" length="20.80" shape="410.40,804.80 389.60,804.80"/>
        <lane id=":n01_6_1" index="1" speed="13.90" length="20.80" shape="410.40,801.60 389.60,801.60"/>
    </edge>
    <edge id=":n01_8" function="internal">
        <lane id=":n01_8_0" index="0" speed="9.26" length="5.01" shape="410.40,801.60 405.44,800.89"/>
    </edge>
    <edge id=":n01_9" function="internal">
        <lane id=":n01_9_0" index="0" speed="3.65" length="1.44" shape="410.40,801.60 409.20,800.80"/>
    </edge>
    <edge id=":n01_22" function="internal">
        <lane id=":n01_22_0" index="0" speed="9.26" length="14.34" shape="405.44,800.89 405.15,800.85 401.40,798.60 399.15,794.85 398.40,789.60"/>
    </edge>
    <edge id=":n01_23" function="internal">
        <lane id=":n01_23_0" index="0" speed="3.65" length="3.23" shape="409.20,800.80 408.80,800.00 409.20,799.20 410.40,798.40"/>
    </edge>
    <edge id=":n01_10" function="internal">
        <lane id=":n01_10_0" index="0" speed="6.51" length="9.03" shape="404.80,789.60 405.15,792.05 406.20,793.80 407.95,794.85 410.40,795.20"/>
    </edge>
    <edge id=":n01_11" function="internal">
        <lane id=":n01_11_0" index="0" speed="13.90" length="20.80" shape="404.80,789.60 404.80,810.40"/>
        <lane id=":n01_11_1" index="1" speed="13.90" length="20.80" shape="401.60,789.60 401.60,810.40"/>
    </edge>
    <edge id=":n01_13" function="internal">
        <lane id=":n01_13_0" index="0" speed="9.26" length="5.01" shape="401.60,789.60 400.89,794.56"/>
    </edge>
    <edge id=":n01_14" function="internal">
        <lane id=":n01_14_0" index="0" speed="3.65" length="1.44" shape="401.60,789.60 400.80,790.80"/>
    </edge>
    <edge id=":n01_24" function="internal">
        <lane id=":n01_24_0" index="0" speed="9.26" length="14.34" shape="400.89,794.56 400.85,794.85 398.60,798.60 394.85,800.85 389.60,801.60"/>
    </edge>
    <edge id=":n01_25" function="internal">
        <lane id=":n01_25_0" index="0" speed="3.65" length="3.23" shape="400.80,790.80 400.00,791.20 399.20,790.80 398.40,789.60"/>
    </edge>
    <edge id=":n01_15" function="internal">
        <lane id=":n01_15_0" index="0" speed="6.51" length="9.03" shape="389.60,795.20 392.05,794.85 393.80,793.80 394.85,792.05 395.20,789.60"/>
    </edge>
    <edge id=":n01_16" function="internal">
        <lane id=":n01_16_0" index="0" speed="13.90" length="20.80" shape="389.60,795.20 410.40,795.20"/>
        <lane id=":n01_16_1" index="1" speed="13.90" length="20.80" shape="389.60,798.40 410.40,798.40"/>
    </edge>
    <edge id=":n01_18" function="internal">
        <lane id=":n01_18_0" index="0" speed="9.26" length="5.01" shape="389.60,798.40 394.56,799.11"/>
    </edge>
    <edge id=":n01_19" function="internal">
        <lane id=":n01_19_0" index="0" speed="3.65" length="1.44" shape="389.60,798.40 390.80,799.20"/>
    </edge>
    <edge id=":n01_26" function="internal">
        <lane id=":n01_26_0" index="0" speed="9.26" length="14.34" shape="394.56,799.11 394.85,799.15 398.60,801.40 400.85,805.15 401.60,810.40"/>
    </edge>
    <edge id=":n01_27" function="internal">
        <lane id=":n01_27_0" index="0" speed="3.65" length="3.23" shape="390.80,799.20 391.20,800.00 390.80,800.80 389.60,801.60"/>
    </edge>
    <edge id=":n02_0" function="internal">
        <lane id=":n02_0_0" index="0" speed="6.51" length="9.03" shape="595.20,810.40 594.85,807.95 593.80,806.20 592.05,805.15 589.60,804.80"/>
    </edge>
    <edge id=":n02_1" function="internal">
        <lane id=":n02_1_0" index="0" speed="13.90" length="20.80" shape="595.20,810.40 595.20,789.60"/>
        <lane id=":n02_1_1" index="1" speed="13.90" length="20.80" shape="598.40,810.40 598.40,789.60"/>
    </edge>
    <edge id=":n02_3" function="internal">
        <lane id=":n02_3_0" index="0" speed="9.26" length="5.01" shape="598.40,810.40 599.11,805.44"/>
    </edge>
    <edge id=":n02_4" function="internal">
        <lane id=":n02_4_0" index="0" speed="3.65" length="1.44" shape="598.40,810.40 599.20,809.20"/>
    </edge>
    <edge id=":n02_20" function="internal">
        <lane id=":n02_20_0" index="0" speed="9.26" length="14.34" shape="599.11,805.44 599.15,805.15 601.40,801.40 605.15,799.15 610.40,798.40"/>
    </edge>
    <edge id=":n02_21" function="internal">
        <lane id=":n02_21_0" index="0" speed="3.65" length="3.23" shape="599.20,809.20 600.00,808.80 600.80,809.20 601.60,810.40"/>
    </edge>
    <edge id=":n02_5" function="internal">
        <lane id=":n02_5_0" index="0" speed="6.51" length="9.03" shape="610.40,804.80 607.95,805.15 606.20,806.20 605.15,807.95 604.80,810.40"/>
    </edge>
    <edge id=":n02_6" function="internal">
        <lane id=":n02_6_0" index="0" speed="13.90" length="20.80" shape="610.40,804.80 589.60,804.80"/>
        <lane id=":n02_6_1" index="1" speed="13.90" length="20.80" shape="610.40,801.60 589.60,801.60"/>
    </edge>
    <edge id=":n02_8" function="internal">
        <lane id=":n02_8_0" index="0" speed="9.26" length="5.01" shape="610.40,801.60 605.44,800.89"/>
    </edge>
    <edge id=":n02_9" function="internal">
        <lane id=":n02_9_0" index="0" speed="3.65" length="1.44" shape="610.40,801.60 609.20,800.80"/>
    </edge>
    <edge id=":n02_22" function="internal">
        <lane id=":n02_22_0" index="0" speed="9.26" length="14.34" shape="605.44,800.89 605.15,800.85 601.40,798.60 599.15,794.85 598.40,789.60"/>
    </edge>
    <edge id=":n02_23" function="internal">
        <lane id=":n02_23_0" index="0" speed="3.65" length="3.23" shape="609.20,800.80 608.80,800.00 609.20,799.20 610.40,798.40"/>
    </edge>
    <edge id=":n02_10" function="internal">
        <lane id=":n02_10_0" index="0" speed="6.51" length="9.03" shape="604.80,789.60 605.15,792.05 606.20,793.80 607.95,794.85 610.40,795.20"/>
    </edge>
    <edge id=":n02_11" function="internal">
        <lane id=":n02_11_0" index="0" speed="13.90" length="20.80" shape="604.80,789.60 604.80,810.40"/>
        <lane id=":n02_11_1" index="1" speed="13.90" length="20.80" shape="601.60,789.60 601.60,810.40"/>
    </edge>
    <edge id=":n02_13" function="internal">
        <lane id=":n02_13_0" index="0" speed="9.26" length="5.01" shape="601.60,789.60 600.89,794.56"/>
    </edge>
    <edge id=":n02_14" function="internal">
        <lane id=":n02_14_0" index="0" speed="3.65" length="1.44" shape="601.60,789.60 600.80,790.80"/>
    </edge>
    <edge id=":n02_24" function="internal">
        <lane id=":n02_24_0" index="0" speed="9.26" length="14.34" shape="600.89,794.56 600.85,794.85 598.60,798.60 594.85,800.85 589.60,801.60"/>
    </edge>
    <edge id=":n02_25" function="internal">
        <lane id=":n02_25_0" index="0" speed="3.65" length="3.23" shape="600.80,790.80 600.00,791.20 599.20,790.80 598.40,789.60"/>
    </edge>
    <edge id=":n02_15" function="internal">
        <lane id=":n02_15_0" index="0" speed="6.51" length="9.03" shape="589.60,795.20 592.05,794.85 593.80,793.80 594.85,792.05 595.20,789.60"/>
    </edge>
    <edge id=":n02_16" function="internal">
        <lane id=":n02_16_0" index="0" speed="13.90" length="20.80" shape="589.60,795.20 610.40,795.20"/>
        <lane id=":n02_16_1" index="1" speed="13.90" length="20.80" shape="589.60,798.40 610.40,798.40"/>
    </edge>
    <edge id=":n02_18" function="internal">
        <lane id=":n02_18_0" index="0" speed="9.26" length="5.01" shape="589.60,798.40 594.56,799.11"/>
    </edge>
    <edge id=":n02_19" function="internal">
        <lane id=":n02_19_0" index="0" speed="3.65" length="1.44" shape="589.60,798.40 590.80,799.20"/>
    </edge>
    <edge id=":n02_26" function="internal">
        <lane id=":n02_26_0" index="0" speed="9.26" length="14.34" shape="594.56,799.11 594.85,799.15 598.60,801.40 600.85,805.15 601.60,810.40"/>
    </edge>
    <edge id=":n02_27" function="internal">
        <lane id=":n02_27_0" index="0" speed="3.65" length="3.23" shape="590.80,799.20 591.20,800.00 590.80,800.80 589.60,801.60"/>
    </edge>
    <edge id=":n10_0" function="internal">
        <lane id=":n10_0_0" index="0" speed="6.51" length="9.03" shape="195.20,510.40 194.85,507.95 193.80,506.20 192.05,505.15 189.60,504.80"/>
    </edge>
    <edge id=":n10_1" function="internal">
        <lane id=":n10_1_0" index="0" speed="13.90" length="20.80" shape="195.20,510.40 195.20,489.60"/>
        <lane id=":n10_1_1" index="1" speed="13.90" length="20.80" shape="198.40,510.40 198.40,489.60"/>
    </edge>
    <edge id=":n10_3" function="internal">
        <lane id=":n10_3_0" index="0" speed="9.26" length="5.01" shape="198.40,510.40 199.11,505.44"/>
    </edge>
    <edge id=":n10_4" function="internal">
        <lane id=":n10_4_0" index="0" speed="3.65" length="1.44" shape="198.40,510.40 199.20,509.20"/>
    </edge>
    <edge id=":n10_20" function="internal">
        <lane id=":n10_20_0" index="0" speed="9.26" length="14.34" shape="199.11,505.44 199.15,505.15 201.40,501.40 205.15,499.15 210.40,498.40"/>
    </edge>
    <edge id=":n10_21" function="internal">
        <lane id=":n10_21_0" index="0" speed="3.65" length="3.23" shape="199.20,509.20 200.00,508.80 200.80,509.20 201.60,510.40"/>
    </edge>
    <edge id=":n10_5" function="internal">
        <lane id=":n10_5_0" index="0" speed="6.51" length="9.03" shape="210.40,504.80 207.95,505.15 206.20,506.20 205.15,507.95 204.80,510.40"/>
    </edge>
    <edge id=":n10_6" function="internal">
        <lane id=":n10_6_0" index="0" speed="13.90" length="20.80" shape="210.40,504.80 189.60,504.80"/>
        <lane id=":n10_6_1" index="1" speed="13.90" length="20.80" shape="210.40,501.60 189.60,501.60"/>
    </edge>
    <edge id=":n10_8" function="internal">
        <lane id=":n10_8_0" index="0" speed="9.26" length="5.01" shape="210.40,501.60 205.44,500.89"/>
    </edge>
    <edge id=":n10_9" function="internal">
        <lane id=":n10_9_0" index="0" speed="3.65" length="1.44" shape="210.40,501.60 209.20,500.80"/>
    </edge>
    <edge id=":n10_22" function="internal">
        <lane id=":n10_22_0" index="0" speed="9.26" length="14.34" shape="205.44,500.89 205.15,500.85 201.40,498.60 199.15,494.85 198.40,489.60"/>
    </edge>
    <edge id=":n10_23" function="internal">
        <lane id=":n10_23_0" index="0" speed="3.65" length="3.23" shape="209.20,500.80 208.80,500.00 209.20,499.20 210.40,498.40"/>
    </edge>
    <edge id=":n10_10" function="internal">
        <lane id=":n10_10_0" index="0" speed="6.51" length="9.03" shape="204.80,489.60 205.15,492.05 206.20,493.80 207.95,494.85 210.40,495.20"/>
    </edge>
    <edge id=":n10_11" function="internal">
        <lane id=":n10_11_0" index="0" speed="13.90" length="20.80" shape="204.80,489.60 204.80,510.40"/>
        <lane id=":n10_11_1" index="1" speed="13.90" length="20.80" shape="201.60,489.60 201.60,510.40"/>
    </edge>
    <edge id=":n10_13" function="internal">
        <lane id=":n10_13_0" index="0" speed="9.26" length="5.01" shape="201.60,489.60 200.89,494.56"/>
    </edge>
    <edge id=":n10_14" function="internal">
        <lane id=":n10_14_0" index="0" speed="3.65" length="1.44" shape="201.60,489.60 200.80,490.80"/>
    </edge>
    <edge id=":n10_24" function="internal">
        <lane id=":n10_24_0" index="0" speed="9.26" length="14.34" shape="200.89,494.56 200.85,494.85 198.60,498.60 194.85,500.85 189.60,501.60"/>
    </edge>
    <edge id=":n10_25" function="internal">
        <lane id=":n10_25_0" index="0" speed="3.65" length="3.23" shape="200.80,490.80 200.00,491.20 199.20,490.80 198.40,489.60"/>
    </edge>
    <edge id=":n10_15" function="internal">
        <lane id=":n10_15_0" index="0" speed="6.51" length="9.03" shape="189.60,495.20 192.05,494.85 193.80,493.80 194.85,492.05 195.20,489.60"/>
    </edge>
    <edge id=":n10_16" function="internal">
        <lane id=":n10_16_0" index="0" speed="13.90" length="20.80" shape="189.60,495.20 210.40,495.20"/>
        <lane id=":n10_16_1" index="1" speed="13.90" length="20.80" shape="189.60,498.40 210.40,498.40"/>
    </edge>
    <edge id=":n10_18" function="internal">
        <lane id=":n10_18_0" index="0" speed="9.26" length="5.01" shape="189.60,498.40 194.56,499.11"/>
    </edge>
    <edge id=":n10_19" function="internal">
        <lane id=":n10_19_0" index="0" speed="3.65" length="1.44" shape="189.60,498.40 190.80,499.20"/>
    </edge>
    <edge id=":n10_26" function="internal">
        <lane id=":n10_26_0" index="0" speed="9.26" length="14.34" shape="194.56,499.11 194.85,499.15 198.60,501.40 200.85,505.15 201.60,510.40"/>
    </edge>
    <edge id=":n10_27" function="internal">
        <lane id=":n10_27_0" index="0" speed="3.65" length="3.23" shape="190.80,499.20 191.20,500.00 190.80,500.80 189.60,501.60"/>
    </edge>
    <edge id=":n11_0" function="internal">
        <lane id=":n11_0_0" index="0" speed="6.51" length="9.03" shape="395.20,510.40 394.85,507.95 393.80,506.20 392.05,505.15 389.60,504.80"/>
    </edge>
    <edge id=":n11_1" function="internal">
        <lane id=":n11_1_0" index="0" speed="13.90" length="20.80" shape="395.20,510.40 395.20,489.60"/>
        <lane id=":n11_1_1" index="1" speed="13.90" length="20.80" shape="398.40,510.40 398.40,489.60"/>
    </edge>
    <edge id=":n11_3" function="internal">
        <lane id=":n11_3_0" index="0" speed="9.26" length="5.01" shape="398.40,510.40 399.11,505.44"/>
    </edge>
    <edge id=":n11_4" function="internal">
        <lane id=":n11_4_0" index="0" speed="3.65" length="1.44" shape="398.40,510.40 399.20,509.20"/>
    </edge>
    <edge id=":n11_20" function="internal">
        <lane id=":n11_20_0" index="0" speed="9.26" length="14.34" shape="399.11,505.44 399.15,505.15 401.40,501.40 405.15,499.15 410.40,498.40"/>
    </edge>
    <edge id=":n11_21" function="internal">
        <lane id=":n11_21_0" index="0" speed="3.65" length="3.23" shape="399.20,509.20 400.00,508.80 400.80,509.20 401.60,510.40"/>
    </edge>
    <edge id=":n11_5" function="internal">
        <lane id=":n11_5_0" index="0" speed="6.51" length="9.03" shape="410.40,504.80 407.95,505.15 406.20,506.20 405.15,507.95 404.80,510.40"/>
    </edge>
    <edge id=":n11_6" function="internal">
        <lane id=":n11_6_0" index="0" speed="13.90" length="20.80" shape="410.40,504.80 389.60,504.80"/>
        <lane id=":n11_6_1" index="1" speed="13.90" length="20.80" shape="410.40,501.60 389.60,501.60"/>
    </edge>
    <edge id=":n11_8" function="internal">
        <lane id=":n11_8_0" index="0" speed="9.26" length="5.01" shape="410.40,501.60 405.44,500.89"/>
    </edge>
    <edge id=":n11_9" function="internal">
        <lane id=":n11_9_0" index="0" speed="3.65" length="1.44" shape="410.40,501.60 409.20,500.80"/>
    </edge>
    <edge id=":n11_22" function="internal">
        <lane id=":n11_22_0" index="0" speed="9.26" length="14.34" shape="405.44,500.89 405.15,500.85 401.40,498.60 399.15,494.85 398.40,489.60"/>
    </edge>
    <edge id=":n11_23" function="internal">
        <lane id=":n11_23_0" index="0" speed="3.65" length="3.23" shape="409.20,500.80 408.80,500.00 409.20,499.20 410.40,498.40"/>
    </edge>
    <edge id=":n11_10" function="internal">
        <lane id=":n11_10_0" index="0" speed="6.51" length="9.03" shape="404.80,489.60 405.15,492.05 406.20,493.80 407.95,494.85 410.40,495.20"/>
    </edge>
    <edge id=":n11_11" function="internal">
        <lane id=":n11_11_0" index="0" speed="13.90" length="20.80" shape="404.80,489.60 404.80,510.40"/>
        <lane id=":n11_11_1" index="1" speed="13.90" length="20.80" shape="401.60,489.60 401.60,510.40"/>
    </edge>
    <edge id=":n11_13" function="internal">
        <lane id=":n11_13_0" index="0" speed="9.26" length="5.01" shape="401.60,489.60 400.89,494.56"/>
    </edge>
    <edge id=":n11_14" function="internal">
        <lane id=":n11_14_0" index="0" speed="3.65" length="1.44" shape="401.60,489.60 400.80,490.80"/>
    </edge>
    <edge id=":n11_24" function="internal">
        <lane id=":n11_24_0" index="0" speed="9.26" length="14.34" shape="400.89,494.56 400.85,494.85 398.60,498.60 394.85,500.85 389.60,501.60"/>
    </edge>
    <edge id=":n11_25" function="internal">
        <lane id=":n11_25_0" index="0" speed="3.65" length="3.23" shape="400.80,490.80 400.00,491.20 399.20,490.80 398.40,489.60"/>
    </edge>
    <edge id=":n11_15" function="internal">
        <lane id=":n11_15_0" index="0" speed="6.51" length="9.03" shape="389.60,495.20 392.05,494.85 393.80,493.80 394.85,492.05 395.20,489.60"/>
    </edge>
    <edge id=":n11_16" function="internal">
        <lane id=":n11_16_0" index="0" speed="13.90" length="20.80" shape="389.60,495.20 410.40,495.20"/>
        <lane id=":n11_16_1" index="1" speed="13.90" length="20.80" shape="389.60,498.40 410.40,498.40"/>
    </edge>
    <edge id=":n11_18" function="internal">
        <lane id=":n11_18_0" index="0" speed="9.26" length="5.01" shape="389.60,498.40 394.56,499.11"/>
    </edge>
    <edge id=":n11_19" function="internal">
        <lane id=":n11_19_0" index="0" speed="3.65" length="1.44" shape="389.60,498.40 390.80,499.20"/>
    </edge>
    <edge id=":n11_26" function="internal">
        <lane id=":n11_26_0" index="0" speed="9.26" length="14.34" shape="394.56,499.11 394.85,499.15 398.60,501.40 400.85,505.15 401.60,510.40"/>
    </edge>
    <edge id=":n11_27" function="internal">
        <lane id=":n11_27_0" index="0" speed="3.65" length="3.23" shape="390.80,499.20 391.20,500.00 390.80,500.80 389.60,501.60"/>
    </edge>
    <edge id=":n12_0" function="internal">
        <lane id=":n12_0_0" index="0" speed="6.51" length="9.03" shape="595.20,510.40 594.85,507.95 593.80,506.20 592.05,505.15 589.60,504.80"/>
    </edge>
    <edge id=":n12_1" function="internal">
        <lane id=":n12_1_0" index="0" speed="13.90" length="20.80" shape="595.20,510.40 595.20,489.60"/>
        <lane id=":n12_1_1" index="1" speed="13.90" length="20.80" shape="598.40,510.40 598.40,489.60"/>
    </edge>
    <edge id=":n12_3" function="internal">
        <lane id=":n12_3_0" index="0" speed="9.26" length="5.01" shape="598.40,510.40 599.11,505.44"/>
    </edge>
    <edge id=":n12_4" function="internal">
        <lane id=":n12_4_0" index="0" speed="3.65" length="1.44" shape="598.40,510.40 599.20,509.20"/>
    </edge>
    <edge id=":n12_20" function="internal">
        <lane id=":n12_20_0" index="0" speed="9.26" length="14.34" shape="599.11,505.44 599.15,505.15 601.40,501.40 605.15,499.15 610.40,498.40"/>
    </edge>
    <edge id=":n12_21" function="internal">
        <lane id=":n12_21_0" index="0" speed="3.65" length="3.23" shape="599.20,509.20 600.00,508.80 600.80,509.20 601.60,510.40"/>
    </edge>
    <edge id=":n12_5" function="internal">
        <lane id=":n12_5_0" index="0" speed="6.51" length="9.03" shape="610.40,504.80 607.95,505.15 606.20,506.20 605.15,507.95 604.80,510.40"/>
    </edge>
    <edge id=":n12_6" function="internal">
        <lane id=":n12_6_0" index="0" speed="13.90" length="20.80" shape="610.40,504.80 589.60,504.80"/>
        <lane id=":n12_6_1" index="1" speed="13.90" length="20.80" shape="610.40,501.60 589.60,501.60"/>
    </edge>
    <edge id=":n12_8" function="internal">
        <lane id=":n12_8_0" index="0" speed="9.26" length="5.01" shape="610.40,501.60 605.44,500.89"/>
    </edge>
    <edge id=":n12_9" function="internal">
        <lane id=":n12_9_0" index="0" speed="3.65" length="1.44" shape="610.40,501.60 609.20,500.80"/>
    </edge>
    <edge id=":n12_22" function="internal">
        <lane id=":n12_22_0" index="0" speed="9.26" length="14.34" shape="605.44,500.89 605.15,500.85 601.40,498.60 599.15,494.85 598.40,489.60"/>
    </edge>
    <edge id=":n12_23" function="internal">
        <lane id=":n12_23_0" index="0" speed="3.65" length="3.23" shape="609.20,500.80 608.80,500.00 609.20,499.20 610.40,498.40"/>
    </edge>
    <edge id=":n12_10" function="internal">
        <lane id=":n12_10_0" index="0" speed="6.51" length="9.03" shape="604.80,489.60 605.15,492.05 606.20,493.80 607.95,494.85 610.40,495.20"/>
    </edge>
    <edge id=":n12_11" function="internal">
        <lane id=":n12_11_0" index="0" speed="13.90" length="20.80" shape="604.80,489.60 604.80,510.40"/>
        <lane id=":n12_11_1" index="1" speed="13.90" length="20.80" shape="601.60,489.60 601.60,510.40"/>
    </edge>
    <edge id=":n12_13" function="internal">
        <lane id=":n12_13_0" index="0" speed="9.26" length="5.01" shape="601.60,489.60 600.89,494.56"/>
    </edge>
    <edge id=":n12_14" function="internal">
        <lane id=":n12_14_0" index="0" speed="3.65" length="1.44" shape="601.60,489.60 600.80,490.80"/>
    </edge>
    <edge id=":n12_24" function="internal">
        <lane id=":n12_24_0" index="0" speed="9.26" length="14.34" shape="600.89,494.56 600.85,494.85 598.60,498.60 594.85,500.85 589.60,501.60"/>
    </edge>
    <edge id=":n12_25" function="internal">
        <lane id=":n12_25_0" index="0" speed="3.65" length="3.23" shape="600.80,490.80 600.00,491.20 599.20,490.80 598.40,489.60"/>
    </edge>
    <edge id=":n12_15" function="internal">
        <lane id=":n12_15_0" index="0" speed="6.51" length="9.03" shape="589.60,495.20 592.05,494.85 593.80,493.80 594.85,492.05 595.20,489.60"/>
    </edge>
    <edge id=":n12_16" function="internal">
        <lane id=":n12_16_0" index="0" speed="13.90" length="20.80" shape="589.60,495.20 610.40,495.20"/>
        <lane id=":n12_16_1" index="1" speed="13.90" length="20.80" shape="589.60,498.40 610.40,498.40"/>
    </edge>
    <edge id=":n12_18" function="internal">
        <lane id=":n12_18_0" index="0" speed="9.26" length="5.01" shape="589.60,498.40 594.56,499.11"/>
    </edge>
    <edge id=":n12_19" function="internal">
        <lane id=":n12_19_0" index="0" speed="3.65" length="1.44" shape="589.60,498.40 590.80,499.20"/>
    </edge>
    <edge id=":n12_26" function="internal">
        <lane id=":n12_26_0" index="0" speed="9.26" length="14.34" shape="594.56,499.11 594.85,499.15 598.60,501.40 600.85,505.15 601.60,510.40"/>
    </edge>
    <edge id=":n12_27" function="internal">
        <lane id=":n12_27_0" index="0" speed="3.65" length="3.23" shape="590.80,499.20 591.20,500.00 590.80,500.80 589.60,501.60"/>
    </edge>
    <edge id=":n20_0" function="internal">
        <lane id=":n20_0_0" index="0" speed="6.51" length="9.03" shape="195.20,210.40 194.85,207.95 193.80,206.20 192.05,205.15 189.60,204.80"/>
    </edge>
    <edge id=":n20_1" function="internal">
        <lane id=":n20_1_0" index="0" speed="13.90" length="20.80" shape="195.20,210.40 195.20,189.60"/>
        <lane id=":n20_1_1" index="1" speed="13.90" length="20.80" shape="198.40,210.40 198.40,189.60"/>
    </edge>
    <edge id=":n20_3" function="internal">
        <lane id=":n20_3_0" index="0" speed="9.26" length="5.01" shape="198.40,210.40 199.11,205.44"/>
    </edge>
    <edge id=":n20_4" function="internal">
        <lane id=":n20_4_0" index="0" speed="3.65" length="1.44" shape="198.40,210.40 199.20,209.20"/>
    </edge>
    <edge id=":n20_20" function="internal">