<?xml version='1.0' encoding='utf-8'?>
<routes xmlns:xsi="http://www.w3.org/2001/XMLSchema-instance" xsi:noNamespaceSchemaLocation="http://sumo.dlr.de/xsd/routes_file.xsd">
  <vType id="car" accel="2.6" decel="4.5" sigma="0.5" length="5.0" maxSpeed="13.9" color="1,1,0" vClass="passenger" guiShape="passenger/sedan" />
  <vType id="bike" accel="1.0" decel="3.0" sigma="0.6" length="2.0" maxSpeed="6.0" color="0,1,0" vClass="motorcycle" guiShape="motorcycle" />
  <vType id="truck" accel="1.2" decel="4.0" sigma="0.5" length="8.0" maxSpeed="11.1" color="0,0,1" vClass="truck" guiShape="truck" />
  <vType id="bus" accel="1.0" decel="4.0" sigma="0.5" length="10.0" maxSpeed="11.1" color="1,0,0" vClass="bus" guiShape="bus" />
  <vType id="auto" accel="1.8" decel="4.0" sigma="0.5" length="3.0" maxSpeed="8.0" color="1,0,1" vClass="passenger" guiShape="rickshaw" />
  <vType id="ambulance" accel="3.0" decel="5.0" sigma="0.4" length="6.0" maxSpeed="16.7" color="1,0,0" vClass="passenger" guiShape="emergency" width="2.5" mass="2000" />
  <vType id="firetruck" accel="2.8" decel="5.0" sigma="0.4" length="8.0" maxSpeed="15.0" color="1,0,0" vClass="truck" guiShape="firebrigade" width="2.5" mass="3000" />
  <vType id="police" accel="3.0" decel="5.0" sigma="0.4" length="5.0" maxSpeed="16.0" color="0,0,1" vClass="passenger" guiShape="police" width="2.0" mass="1500" />
  <trip id="trip_0" type="car" depart="0.0" from="s_w_1_n10" to="n02_s_e_0" />
  <trip id="trip_1" type="car" depart="2.0" from="s_e_1_n12" to="n20_s_b_0" />
  <trip id="trip_2" type="bike" depart="4.0" from="s_w_2_n20" to="n02_s_e_0" />
  <trip id="trip_3" type="car" depart="6.0" from="s_n_2_n02" to="n01_s_n_1" />
  <trip id="trip_4" type="car" depart="8.0" from="s_b_0_n20" to="n00_s_n_0" />
  <trip id="trip_5" type="bike" depart="10.0" from="s_e_0_n02" to="s_e_1_n12" />
  <trip id="trip_6" type="truck" depart="12.0" from="s_n_2_n02" to="n12_s_e_1" />
  <trip id="trip_7" type="car" depart="14.0" from="s_w_2_n20" to="s_e_2_n22" />
  <trip id="trip_8" type="car" depart="16.0" from="s_n_1_n01" to="s_n_0_n00" />
  <trip id="trip_9" type="bike" depart="18.0" from="s_b_0_n20" to="n10_s_w_1" />
  <trip id="trip_10" type="car" depart="20.0" from="s_e_2_n22" to="n20_s_w_2" />
  <trip id="trip_11" type="car" depart="22.0" from="s_e_2_n22" to="n02_s_e_0" />
  <trip id="trip_12" type="auto" depart="24.0" from="s_b_1_n21" to="n22_s_e_2" />
  <trip id="trip_13" type="bus" depart="26.0" from="s_w_0_n00" to="n20_s_w_2" />
  <trip id="trip_14" type="car" depart="28.0" from="s_w_2_n20" to="s_b_2_n22" />
  <trip id="trip_15" type="car" depart="30.0" from="s_n_0_n00" to="n01_s_n_1" />
  <trip id="trip_16" type="auto" depart="32.0" from="s_w_1_n10" to="s_n_1_n01" />
  <trip id="trip_17" type="car" depart="34.0" from="s_e_2_n22" to="s_n_0_n00" />
  <trip id="trip_18" type="bike" depart="36.0" from="s_b_1_n21" to="n00_s_w_0" />
  <trip id="trip_19" type="auto" depart="38.0" from="s_e_1_n12" to="n01_s_n_1" />
  <trip id="trip_20" type="car" depart="40.0" from="s_b_1_n21" to="s_b_0_n20" />
  <trip id="trip_21" type="car" depart="42.0" from="s_w_1_n10" to="n22_s_e_2" />
  <trip id="trip_22" type="bike" depart="44.0" from="s_e_2_n22" to="n12_s_e_1" />
  <trip id="trip_23" type="bike" depart="46.0" from="s_w_2_n20" to="s_w_0_n00" />
  <trip id="trip_24" type="car" depart="48.0" from="s_w_0_n00" to="s_n_2_n02" />
  <trip id="trip_25" type="car" depart="50.0" from="s_w_2_n20" to="n20_s_b_0" />
  <trip id="trip_26" type="police" depart="52.0" from="s_n_0_n00" to="n20_s_w_2" />
  <trip id="trip_27" type="car" depart="54.0" from="s_w_1_n10" to="s_e_2_n22" />
  <trip id="trip_28" type="car" depart="56.0" from="s_e_2_n22" to="n00_s_w_0" />
  <trip id="trip_29" type="car" depart="58.0" from="s_b_0_n20" to="n22_s_b_2" />
  <trip id="trip_30" type="auto" depart="60.0" from="s_b_1_n21" to="n12_s_e_1" />
  <trip id="trip_31" type="car" depart="62.0" from="s_w_0_n00" to="s_w_1_n10" />
  <trip id="trip_32" type="car" depart="64.0" from="s_w_1_n10" to="s_e_0_n02" />
  <trip id="trip_33" type="car" depart="66.0" from="s_w_1_n10" to="s_b_2_n22" />
  <trip id="trip_34" type="truck" depart="68.0" from="s_b_2_n22" to="n20_s_b_0" />
  <trip id="trip_35" type="truck" depart="70.0" from="s_n_2_n02" to="n20_s_w_2" />
  <trip id="trip_36" type="car" depart="72.0" from="s_n_0_n00" to="s_b_0_n20" />
  <trip id="trip_37" type="car" depart="74.0" from="s_b_2_n22" to="s_e_1_n12" />
  <trip id="trip_38" type="car" depart="76.0" from="s_b_0_n20" to="n02_s_e_0" />
  <trip id="trip_39" type="car" depart="78.0" from="s_b_2_n22" to="s_w_0_n00" />
  <trip id="trip_40" type="car" depart="80.0" from="s_b_1_n21" to="s_b_0_n20" />
  <trip id="trip_41" type="car" depart="82.0" from="s_n_1_n01" to="s_e_1_n12" />
  <trip id="trip_42" type="bike" depart="84.0" from="s_n_2_n02" to="n00_s_n_0" />
  <trip id="trip_43" type="auto" depart="86.0" from="s_b_1_n21" to="s_w_0_n00" />
  <trip id="trip_44" type="car" depart="88.0" from="s_e_1_n12" to="s_n_2_n02" />
  <trip id="trip_45" type="car" depart="90.0" from="s_e_1_n12" to="s_b_1_n21" />
  <trip id="trip_46" type="auto" depart="92.0" from="s_b_0_n20" to="s_w_2_n20" />
  <trip id="trip_47" type="car" depart="94.0" from="s_e_1_n12" to="n10_s_w_1" />
  <trip id="trip_48" type="car" depart="96.0" from="s_b_1_n21" to="s_n_2_n02" />
  <trip id="trip_49" type="bike" depart="98.0" from="s_w_1_n10" to="s_e_1_n12" />
  <trip id="trip_50" type="truck" depart="100.0" from="s_b_2_n22" to="n22_s_e_2" />
  <trip id="trip_51" type="auto" depart="102.0" from="s_n_2_n02" to="s_e_1_n12" />
  <trip id="trip_52" type="car" depart="104.0" from="s_w_0_n00" to="n22_s_b_2" />
  <trip id="trip_53" type="auto" depart="106.0" from="s_b_1_n21" to="n22_s_e_2" />
  <trip id="trip_54" type="car" depart="108.0" from="s_e_1_n12" to="n20_s_b_0" />
  <trip id="trip_55" type="car" depart="110.0" from="s_w_0_n00" to="n01_s_n_1" />
  <trip id="trip_56" type="firetruck" depart="112.0" from="s_n_1_n01" to="n01_s_n_1" />
  <trip id="trip_57" type="car" depart="114.0" from="s_n_2_n02" to="n02_s_n_2" />
  <trip id="trip_58" type="car" depart="116.0" from="s_n_1_n01" to="s_e_2_n22" />
  <trip id="trip_59" type="car" depart="118.0" from="s_n_2_n02" to="s_n_1_n01" />
  <trip id="trip_60" type="truck" depart="120.0" from="s_e_0_n02" to="s_e_2_n22" />
  <trip id="trip_61" type="truck" depart="122.0" from="s_w_2_n20" to="n12_s_e_1" />
  <trip id="trip_62" type="bike" depart="124.0" from="s_n_0_n00" to="s_w_0_n00" />
  <trip id="trip_63" type="car" depart="126.0" from="s_n_1_n01" to="s_e_1_n12" />
  <trip id="trip_64" type="car" depart="128.0" from="s_e_0_n02" to="n20_s_b_0" />
  <trip id="trip_65" type="car" depart="130.0" from="s_b_0_n20" to="s_n_0_n00" />
  <trip id="trip_66" type="car" depart="132.0" from="s_w_0_n00" to="n20_s_b_0" />
  <trip id="trip_67" type="car" depart="134.0" from="s_w_2_n20" to="s_n_2_n02" />
  <trip id="trip_68" type="auto" depart="136.0" from="s_b_1_n21" to="n00_s_w_0" />
  <trip id="trip_69" type="car" depart="138.0" from="s_b_1_n21" to="s_e_1_n12" />
  <trip id="trip_70" type="car" depart="140.0" from="s_w_1_n10" to="s_e_0_n02" />
  <trip id="trip_71" type="ambulance" depart="142.0" from="s_b_2_n22" to="s_w_2_n20" />
  <trip id="trip_72" type="car" depart="144.0" from="s_w_0_n00" to="s_n_0_n00" />
  <trip id="trip_73" type="car" depart="146.0" from="s_n_1_n01" to="s_b_1_n21" />
  <trip id="trip_74" type="car" depart="148.0" from="s_b_1_n21" to="s_w_0_n00" />
  <trip id="trip_75" type="car" depart="150.0" from="s_n_0_n00" to="s_b_1_n21" />
  <trip id="trip_76" type="bike" depart="152.0" from="s_w_2_n20" to="n00_s_w_0" />
  <trip id="trip_77" type="car" depart="154.0" from="s_w_1_n10" to="n02_s_e_0" />
  <trip id="trip_78" type="bus" depart="156.0" from="s_w_2_n20" to="n22_s_b_2" />
  <trip id="trip_79" type="car" depart="158.0" from="s_b_1_n21" to="n20_s_b_0" />
  <trip id="trip_80" type="car" depart="160.0" from="s_n_2_n02" to="s_b_2_n22" />
  <trip id="trip_81" type="car" depart="162.0" from="s_b_2_n22" to="n20_s_w_2" />
  <trip id="trip_82" type="bus" depart="164.0" from="s_b_1_n21" to="s_b_2_n22" />
  <trip id="trip_83" type="car" depart="166.0" from="s_n_2_n02" to="n02_s_e_0" />
  <trip id="trip_84" type="firetruck" depart="168.0" from="s_n_2_n02" to="n00_s_n_0" />
  <trip id="trip_85" type="car" depart="170.0" from="s_e_0_n02" to="n10_s_w_1" />
  <trip id="trip_86" type="auto" depart="172.0" from="s_n_1_n01" to="n12_s_e_1" />
  <trip id="trip_87" type="car" depart="174.0" from="s_b_0_n20" to="n10_s_w_1" />
  <trip id="trip_88" type="ambulance" depart="176.0" from="s_n_0_n00" to="n20_s_w_2" />
  <trip id="trip_89" type="car" depart="178.0" from="s_n_1_n01" to="n21_s_b_1" />
  <trip id="trip_90" type="bike" depart="180.0" from="s_w_2_n20" to="s_e_2_n22" />
  <trip id="trip_91" type="car" depart="182.0" from="s_n_1_n01" to="n02_s_n_2" />
  <trip id="trip_92" type="car" depart="184.0" from="s_e_0_n02" to="n00_s_w_0" />
  <trip id="trip_93" type="truck" depart="186.0" from="s_n_2_n02" to="n00_s_w_0" />
  <trip id="trip_94" type="car" depart="188.0" from="s_b_0_n20" to="n00_s_w_0" />
  <trip id="trip_95" type="car" depart="190.0" from="s_n_2_n02" to="s_e_1_n12" />
  <trip id="trip_96" type="auto" depart="192.0" from="s_n_2_n02" to="n01_s_n_1" />
  <trip id="trip_97" type="car" depart="194.0" from="s_b_1_n21" to="s_n_1_n01" />
  <trip id="trip_98" type="car" depart="196.0" from="s_e_0_n02" to="s_b_0_n20" />
  <trip id="trip_99" type="car" depart="198.0" from="s_w_0_n00" to="n20_s_b_0" />
  <trip id="trip_100" type="car" depart="200.0" from="s_b_0_n20" to="s_n_1_n01" />
  <trip id="trip_101" type="car" depart="202.0" from="s_w_1_n10" to="s_n_0_n00" />
  <trip id="trip_102" type="car" depart="204.0" from="s_e_2_n22" to="n20_s_w_2" />
  <trip id="trip_103" type="car" depart="206.0" from="s_w_2_n20" to="n22_s_b_2" />
  <trip id="trip_104" type="bike" depart="208.0" from="s_n_0_n00" to="n02_s_n_2" />
  <trip id="trip_105" type="car" depart="210.0" from="s_e_1_n12" to="s_b_2_n22" />
  <trip id="trip_106" type="car" depart="212.0" from="s_b_1_n21" to="n00_s_n_0" />
  <trip id="trip_107" type="car" depart="214.0" from="s_w_0_n00" to="n02_s_e_0" />
  <trip id="trip_108" type="car" depart="216.0" from="s_e_0_n02" to="s_e_1_n12" />
  <trip id="trip_109" type="auto" depart="218.0" from="s_e_2_n22" to="n01_s_n_1" />
  <trip id="trip_110" type="car" depart="220.0" from="s_e_2_n22" to="n21_s_b_1" />
  <trip id="trip_111" type="car" depart="222.0" from="s_n_2_n02" to="s_w_1_n10" />
  <trip id="trip_112" type="car" depart="224.0" from="s_w_1_n10" to="s_e_1_n12" />
  <trip id="trip_113" type="ambulance" depart="226.0" from="s_n_2_n02" to="n21_s_b_1" />
  <trip id="trip_114" type="car" depart="228.0" from="s_b_1_n21" to="n02_s_n_2" />
  <trip id="trip_115" type="car" depart="230.0" from="s_b_1_n21" to="s_w_2_n20" />
  <trip id="trip_116" type="bike" depart="232.0" from="s_e_1_n12" to="n21_s_b_1" />
  <trip id="trip_117" type="car" depart="234.0" from="s_w_2_n20" to="n22_s_b_2" />
  <trip id="trip_118" type="car" depart="236.0" from="s_w_1_n10" to="n20_s_w_2" />
  <trip id="trip_119" type="car" depart="238.0" from="s_e_1_n12" to="n00_s_w_0" />
  <trip id="trip_120" type="car" depart="240.0" from="s_n_0_n00" to="n20_s_w_2" />
  <trip id="trip_121" type="bike" depart="242.0" from="s_e_2_n22" to="n02_s_n_2" />
  <trip id="trip_122" type="truck" depart="244.0" from="s_e_1_n12" to="n10_s_w_1" />
  <trip id="trip_123" type="car" depart="246.0" from="s_n_2_n02" to="s_w_1_n10" />
  <trip id="trip_124" type="car" depart="248.0" from="s_b_0_n20" to="n02_s_e_0" />
  <trip id="trip_125" type="car" depart="250.0" from="s_w_2_n20" to="n02_s_n_2" />
  <trip id="trip_126" type="car" depart="252.0" from="s_e_2_n22" to="s_n_0_n00" />
  <trip id="trip_127" type="car" depart="254.0" from="s_n_0_n00" to="n02_s_n_2" />
  <trip id="trip_128" type="auto" depart="256.0" from="s_e_2_n22" to="n00_s_w_0" />
  <trip id="trip_129" type="car" depart="258.0" from="s_e_0_n02" to="s_w_0_n00" />
  <trip id="trip_130" type="bus" depart="260.0" from="s_b_1_n21" to="n22_s_e_2" />
  <trip id="trip_131" type="truck" depart="262.0" from="s_n_0_n00" to="s_n_1_n01" />
  <trip id="trip_132" type="firetruck" depart="264.0" from="s_e_0_n02" to="n10_s_w_1" />
  <trip id="trip_133" type="car" depart="266.0" from="s_b_2_n22" to="s_b_1_n21" />
  <trip id="trip_134" type="bus" depart="268.0" from="s_w_2_n20" to="n22_s_b_2" />
  <trip id="trip_135" type="auto" depart="270.0" from="s_n_0_n00" to="s_w_0_n00" />
  <trip id="trip_136" type="car" depart="272.0" from="s_e_0_n02" to="n20_s_w_2" />
  <trip id="trip_137" type="car" depart="274.0" from="s_w_2_n20" to="n02_s_e_0" />
  <trip id="trip_138" type="car" depart="276.0" from="s_b_0_n20" to="s_e_0_n02" />
  <trip id="trip_139" type="car" depart="278.0" from="s_n_1_n01" to="n22_s_e_2" />
  <trip id="trip_140" type="car" depart="280.0" from="s_e_0_n02" to="n20_s_b_0" />
  <trip id="trip_141" type="car" depart="282.0" from="s_e_0_n02" to="s_b_0_n20" />
  <trip id="trip_142" type="car" depart="284.0" from="s_b_1_n21" to="n20_s_w_2" />
  <trip id="trip_143" type="bike" depart="286.0" from="s_n_2_n02" to="s_b_0_n20" />
  <trip id="trip_144" type="ambulance" depart="288.0" from="s_n_2_n02" to="n22_s_b_2" />
  <trip id="trip_145" type="car" depart="290.0" from="s_b_1_n21" to="n20_s_w_2" />
  <trip id="trip_146" type="car" depart="292.0" from="s_e_1_n12" to="n00_s_w_0" />
  <trip id="trip_147" type="truck" depart="294.0" from="s_n_0_n00" to="n22_s_e_2" />
  <trip id="trip_148" type="bike" depart="296.0" from="s_e_2_n22" to="s_b_1_n21" />
  <trip id="trip_149" type="car" depart="298.0" from="s_n_2_n02" to="n02_s_e_0" />
  <trip id="trip_150" type="car" depart="300.0" from="s_w_0_n00" to="n12_s_e_1" />
  <trip id="trip_151" type="car" depart="302.0" from="s_w_2_n20" to="s_b_1_n21" />
  <trip id="trip_152" type="truck" depart="304.0" from="s_n_2_n02" to="s_w_0_n00" />
  <trip id="trip_153" type="car" depart="306.0" from="s_w_2_n20" to="s_w_0_n00" />
  <trip id="trip_154" type="ambulance" depart="308.0" from="s_n_0_n00" to="n01_s_n_1" />
  <trip id="trip_155" type="car" depart="310.0" from="s_e_2_n22" to="s_n_1_n01" />
  <trip id="trip_156" type="auto" depart="312.0" from="s_b_1_n21" to="s_w_2_n20" />
  <trip id="trip_157" type="bike" depart="314.0" from="s_n_2_n02" to="n21_s_b_1" />
  <trip id="trip_158" type="bike" depart="316.0" from="s_e_2_n22" to="s_b_0_n20" />
  <trip id="trip_159" type="car" depart="318.0" from="s_n_2_n02" to="n02_s_n_2" />
  <trip id="trip_160" type="bike" depart="320.0" from="s_w_1_n10" to="s_b_0_n20" />
  <trip id="trip_161" type="car" depart="322.0" from="s_b_2_n22" to="s_n_1_n01" />
  <trip id="trip_162" type="bus" depart="324.0" from="s_n_0_n00" to="s_e_2_n22" />
  <trip id="trip_163" type="car" depart="326.0" from="s_e_1_n12" to="n21_s_b_1" />
  <trip id="trip_164" type="bike" depart="328.0" from="s_w_0_n00" to="s_n_1_n01" />
  <trip id="trip_165" type="car" depart="330.0" from="s_n_1_n01" to="s_b_2_n22" />
  <trip id="trip_166" type="car" depart="332.0" from="s_e_0_n02" to="s_e_1_n12" />
  <trip id="trip_167" type="bike" depart="334.0" from="s_w_2_n20" to="n10_s_w_1" />
  <trip id="trip_168" type="bike" depart="336.0" from="s_e_1_n12" to="s_w_0_n00" />
  <trip id="trip_169" type="bus" depart="338.0" from="s_e_2_n22" to="n01_s_n_1" />
  <trip id="trip_170" type="car" depart="340.0" from="s_e_0_n02" to="s_w_0_n00" />
  <trip id="trip_171" type="car" depart="342.0" from="s_e_0_n02" to="n02_s_n_2" />
  <trip id="trip_172" type="auto" depart="344.0" from="s_e_0_n02" to="s_n_1_n01" />
  <trip id="trip_173" type="car" depart="346.0" from="s_b_1_n21" to="s_b_2_n22" />
  <trip id="trip_174" type="car" depart="348.0" from="s_w_1_n10" to="s_n_0_n00" />
  <trip id="trip_175" type="car" depart="350.0" from="s_w_2_n20" to="s_b_0_n20" />
  <trip id="trip_176" type="bike" depart="352.0" from="s_e_0_n02" to="n02_s_n_2" />
  <trip id="trip_177" type="truck" depart="354.0" from="s_b_0_n20" to="n02_s_e_0" />
  <trip id="trip_178" type="bus" depart="356.0" from="s_e_0_n02" to="n10_s_w_1" />
  <trip id="trip_179" type="car" depart="358.0" from="s_w_2_n20" to="s_e_1_n12" />
  <trip id="trip_180" type="auto" depart="360.0" from="s_n_2_n02" to="n20_s_b_0" />
  <trip id="trip_181" type="car" depart="362.0" from="s_b_1_n21" to="s_b_2_n22" />
  <trip id="trip_182" type="car" depart="364.0" from="s_n_1_n01" to="s_w_0_n00" />
  <trip id="trip_183" type="car" depart="366.0" from="s_n_2_n02" to="s_n_1_n01" />
  <trip id="trip_184" type="auto" depart="368.0" from="s_n_1_n01" to="s_w_2_n20" />
  <trip id="trip_185" type="car" depart="370.0" from="s_n_0_n00" to="s_e_2_n22" />
  <trip id="trip_186" type="auto" depart="372.0" from="s_b_2_n22" to="s_w_2_n20" />
  <trip id="trip_187" type="truck" depart="374.0" from="s_n_1_n01" to="n20_s_w_2" />
  <trip id="trip_188" type="truck" depart="376.0" from="s_w_1_n10" to="n20_s_w_2" />
  <trip id="trip_189" type="bike" depart="378.0" from="s_n_2_n02" to="s_e_0_n02" />
  <trip id="trip_190" type="car" depart="380.0" from="s_e_1_n12" to="s_b_2_n22" />
  <trip id="trip_191" type="car" depart="382.0" from="s_e_1_n12" to="n20_s_b_0" />
  <trip id="trip_192" type="car" depart="384.0" from="s_e_2_n22" to="n01_s_n_1" />
  <trip id="trip_193" type="bike" depart="386.0" from="s_e_0_n02" to="s_b_0_n20" />
  <trip id="trip_194" type="car" depart="388.0" from="s_w_2_n20" to="n12_s_e_1" />
  <trip id="trip_195" type="car" depart="390.0" from="s_n_0_n00" to="n22_s_b_2" />
  <trip id="trip_196" type="car" depart="392.0" from="s_n_0_n00" to="n00_s_w_0" />
  <trip id="trip_197" type="auto" depart="394.0" from="s_n_0_n00" to="s_b_0_n20" />
  <trip id="trip_198" type="car" depart="396.0" from="s_w_0_n00" to="s_w_1_n10" />
  <trip id="trip_199" type="car" depart="398.0" from="s_w_0_n00" to="s_b_0_n20" />
  <trip id="trip_200" type="truck" depart="400.0" from="s_e_2_n22" to="n21_s_b_1" />
  <trip id="trip_201" type="truck" depart="402.0" from="s_n_0_n00" to="s_e_2_n22" />
  <trip id="trip_202" type="auto" depart="404.0" from="s_n_2_n02" to="s_n_1_n01" />
  <trip id="trip_203" type="car" depart="406.0" from="s_n_1_n01" to="n20_s_b_0" />
  <trip id="trip_204" type="car" depart="408.0" from="s_n_1_n01" to="n00_s_n_0" />
  <trip id="trip_205" type="bus" depart="410.0" from="s_w_1_n10" to="s_w_0_n00" />
  <trip id="trip_206" type="auto" depart="412.0" from="s_w_2_n20" to="n10_s_w_1" />
  <trip id="trip_207" type="car" depart="414.0" from="s_b_2_n22" to="s_n_1_n01" />
  <trip id="trip_208" type="car" depart="416.0" from="s_n_0_n00" to="s_w_0_n00" />
  <trip id="trip_209" type="car" depart="418.0" from="s_w_1_n10" to="s_b_1_n21" />
  <trip id="trip_210" type="car" depart="420.0" from="s_n_1_n01" to="n10_s_w_1" />
  <trip id="trip_211" type="car" depart="422.0" from="s_n_0_n00" to="n22_s_b_2" />
  <trip id="trip_212" type="truck" depart="424.0" from="s_e_2_n22" to="n22_s_b_2" />
  <trip id="trip_213" type="truck" depart="426.0" from="s_n_0_n00" to="n20_s_w_2" />
  <trip id="trip_214" type="bus" depart="428.0" from="s_n_0_n00" to="n20_s_w_2" />
  <trip id="trip_215" type="truck" depart="430.0" from="s_n_1_n01" to="n00_s_n_0" />
  <trip id="trip_216" type="car" depart="432.0" from="s_b_0_n20" to="n22_s_e_2" />
  <trip id="trip_217" type="car" depart="434.0" from="s_b_1_n21" to="s_n_2_n02" />
  <trip id="trip_218" type="car" depart="436.0" from="s_b_0_n20" to="n20_s_b_0" />
  <trip id="trip_219" type="car" depart="438.0" from="s_b_0_n20" to="s_n_1_n01" />
  <trip id="trip_220" type="bike" depart="440.0" from="s_b_2_n22" to="s_e_0_n02" />
  <trip id="trip_221" type="car" depart="442.0" from="s_w_0_n00" to="n12_s_e_1" />
  <trip id="trip_222" type="car" depart="444.0" from="s_e_1_n12" to="n22_s_e_2" />
  <trip id="trip_223" type="truck" depart="446.0" from="s_w_0_n00" to="s_w_2_n20" />
  <trip id="trip_224" type="car" depart="448.0" from="s_b_2_n22" to="n21_s_b_1" />
  <trip id="trip_225" type="car" depart="450.0" from="s_b_0_n20" to="n21_s_b_1" />
  <trip id="trip_226" type="ambulance" depart="452.0" from="s_n_0_n00" to="s_b_0_n20" />
  <trip id="trip_227" type="car" depart="454.0" from="s_e_0_n02" to="n01_s_n_1" />
  <trip id="trip_228" type="car" depart="456.0" from="s_w_1_n10" to="n20_s_b_0" />
  <trip id="trip_229" type="bike" depart="458.0" from="s_e_1_n12" to="s_w_0_n00" />
  <trip id="trip_230" type="bus" depart="460.0" from="s_b_1_n21" to="s_n_0_n00" />
  <trip id="trip_231" type="bike" depart="462.0" from="s_e_2_n22" to="s_b_1_n21" />
  <trip id="trip_232" type="bike" depart="464.0" from="s_b_1_n21" to="s_e_1_n12" />
  <trip id="trip_233" type="bus" depart="466.0" from="s_b_0_n20" to="s_b_1_n21" />
  <trip id="trip_234" type="bike" depart="468.0" from="s_b_1_n21" to="n22_s_e_2" />
  <trip id="trip_235" type="car" depart="470.0" from="s_n_1_n01" to="s_w_1_n10" />
  <trip id="trip_236" type="car" depart="472.0" from="s_b_2_n22" to="s_w_2_n20" />
  <trip id="trip_237" type="bike" depart="474.0" from="s_w_1_n10" to="n20_s_w_2" />
  <trip id="trip_238" type="car" depart="476.0" from="s_n_2_n02" to="s_e_0_n02" />
  <trip id="trip_239" type="car" depart="478.0" from="s_w_2_n20" to="s_n_0_n00" />
  <trip id="trip_240" type="car" depart="480.0" from="s_e_0_n02" to="n01_s_n_1" />
  <trip id="trip_241" type="truck" depart="482.0" from="s_n_1_n01" to="n20_s_b_0" />
  <trip id="trip_242" type="bike" depart="484.0" from="s_w_0_n00" to="s_n_1_n01" />
  <trip id="trip_243" type="car" depart="486.0" from="s_e_2_n22" to="n00_s_n_0" />
  <trip id="trip_244" type="car" depart="488.0" from="s_e_2_n22" to="n10_s_w_1" />
  <trip id="trip_245" type="car" depart="490.0" from="s_e_2_n22" to="n20_s_w_2" />
  <trip id="trip_246" type="auto" depart="492.0" from="s_w_0_n00" to="s_w_1_n10" />
  <trip id="trip_247" type="car" depart="494.0" from="s_n_2_n02" to="n00_s_n_0" />
  <trip id="trip_248" type="car" depart="496.0" from="s_e_0_n02" to="n01_s_n_1" />
  <trip id="trip_249" type="car" depart="498.0" from="s_n_0_n00" to="s_e_0_n02" />
  <trip id="trip_250" type="car" depart="500.0" from="s_e_0_n02" to="s_w_1_n10" />
  <trip id="trip_251" type="car" depart="502.0" from="s_w_2_n20" to="s_e_0_n02" />
  <trip id="trip_252" type="car" depart="504.0" from="s_b_0_n20" to="n01_s_n_1" />
  <trip id="trip_253" type="car" depart="506.0" from="s_n_0_n00" to="s_w_1_n10" />
  <trip id="trip_254" type="car" depart="508.0" from="s_w_1_n10" to="s_n_0_n00" />
  <trip id="trip_255" type="car" depart="510.0" from="s_n_2_n02" to="s_e_1_n12" />
  <trip id="trip_256" type="car" depart="512.0" from="s_w_2_n20" to="s_e_2_n22" />
  <trip id="trip_257" type="car" depart="514.0" from="s_w_2_n20" to="s_b_2_n22" />
  <trip id="trip_258" type="car" depart="516.0" from="s_e_1_n12" to="n20_s_b_0" />
  <trip id="trip_259" type="car" depart="518.0" from="s_e_0_n02" to="n22_s_b_2" />
  <trip id="trip_260" type="car" depart="520.0" from="s_n_2_n02" to="s_w_1_n10" />
  <trip id="trip_261" type="car" depart="522.0" from="s_e_0_n02" to="s_w_2_n20" />
  <trip id="trip_262" type="firetruck" depart="524.0" from="s_w_2_n20" to="s_n_0_n00" />
  <trip id="trip_263" type="car" depart="526.0" from="s_n_2_n02" to="s_n_1_n01" />
  <trip id="trip_264" type="car" depart="528.0" from="s_b_1_n21" to="n12_s_e_1" />
  <trip id="trip_265" type="car" depart="530.0" from="s_e_2_n22" to="n10_s_w_1" />
  <trip id="trip_266" type="car" depart="532.0" from="s_w_2_n20" to="s_e_2_n22" />
  <trip id="trip_267" type="car" depart="534.0" from="s_b_0_n20" to="n00_s_w_0" />
  <trip id="trip_268" type="bike" depart="536.0" from="s_w_2_n20" to="n02_s_n_2" />
  <trip id="trip_269" type="auto" depart="538.0" from="s_n_1_n01" to="n02_s_e_0" />
  <trip id="trip_270" type="car" depart="540.0" from="s_w_0_n00" to="n21_s_b_1" />
  <trip id="trip_271" type="car" depart="542.0" from="s_n_1_n01" to="n22_s_b_2" />
  <trip id="trip_272" type="ambulance" depart="544.0" from="s_b_0_n20" to="n20_s_w_2" />
  <trip id="trip_273" type="bus" depart="546.0" from="s_n_1_n01" to="n02_s_e_0" />
  <trip id="trip_274" type="car" depart="548.0" from="s_n_0_n00" to="s_e_0_n02" />
  <trip id="trip_275" type="car" depart="550.0" from="s_w_1_n10" to="s_w_0_n00" />
  <trip id="trip_276" type="ambulance" depart="552.0" from="s_b_2_n22" to="s_n_0_n00" />
  <trip id="trip_277" type="car" depart="554.0" from="s_b_1_n21" to="n20_s_b_0" />
  <trip id="trip_278" type="car" depart="556.0" from="s_n_0_n00" to="s_n_1_n01" />
  <trip id="trip_279" type="truck" depart="558.0" from="s_w_0_n00" to="n20_s_b_0" />
  <trip id="trip_280" type="auto" depart="560.0" from="s_n_0_n00" to="s_b_2_n22" />
  <trip id="trip_281" type="police" depart="562.0" from="s_e_1_n12" to="s_n_0_n00" />
  <trip id="trip_282" type="bike" depart="564.0" from="s_e_1_n12" to="s_n_0_n00" />
  <trip id="trip_283" type="car" depart="566.0" from="s_w_0_n00" to="s_w_2_n20" />
  <trip id="trip_284" type="car" depart="568.0" from="s_e_0_n02" to="s_n_2_n02" />
  <trip id="trip_285" type="car" depart="570.0" from="s_w_1_n10" to="n01_s_n_1" />
  <trip id="trip_286" type="car" depart="572.0" from="s_b_2_n22" to="s_e_2_n22" />
  <trip id="trip_287" type="car" depart="574.0" from="s_b_0_n20" to="s_b_1_n21" />
  <trip id="trip_288" type="car" depart="576.0" from="s_w_0_n00" to="s_e_0_n02" />
  <trip id="trip_289" type="truck" depart="578.0" from="s_e_0_n02" to="n21_s_b_1" />
  <trip id="trip_290" type="car" depart="580.0" from="s_w_2_n20" to="s_b_2_n22" />
  <trip id="trip_291" type="bus" depart="582.0" from="s_e_0_n02" to="n20_s_w_2" />
  <trip id="trip_292" type="bike" depart="584.0" from="s_w_1_n10" to="s_n_0_n00" />
  <trip id="trip_293" type="car" depart="586.0" from="s_e_0_n02" to="s_b_1_n21" />
  <trip id="trip_294" type="car" depart="588.0" from="s_e_0_n02" to="s_n_2_n02" />
  <trip id="trip_295" type="car" depart="590.0" from="s_e_1_n12" to="n02_s_n_2" />
  <trip id="trip_296" type="car" depart="592.0" from="s_b_2_n22" to="n21_s_b_1" />
  <trip id="trip_297" type="car" depart="594.0" from="s_w_0_n00" to="n21_s_b_1" />
  <trip id="trip_298" type="car" depart="596.0" from="s_n_1_n01" to="s_w_1_n10" />
  <trip id="trip_299" type="car" depart="598.0" from="s_n_0_n00" to="n20_s_w_2" />
  <trip id="trip_300" type="car" depart="600.0" from="s_n_1_n01" to="s_b_2_n22" />
  <trip id="trip_301" type="truck" depart="602.0" from="s_b_0_n20" to="s_b_1_n21" />
  <trip id="trip_302" type="car" depart="604.0" from="s_w_0_n00" to="n20_s_w_2" />
  <trip id="trip_303" type="bus" depart="606.0" from="s_e_0_n02" to="s_w_0_n00" />
  <trip id="trip_304" type="firetruck" depart="608.0" from="s_w_0_n00" to="s_n_0_n00" />
  <trip id="trip_305" type="car" depart="610.0" from="s_w_1_n10" to="n20_s_w_2" />
  <trip id="trip_306" type="car" depart="612.0" from="s_b_2_n22" to="s_e_0_n02" />
  <trip id="trip_307" type="car" depart="614.0" from="s_n_1_n01" to="n20_s_w_2" />
  <trip id="trip_308" type="bike" depart="616.0" from="s_w_0_n00" to="s_b_1_n21" />
  <trip id="trip_309" type="car" depart="618.0" from="s_n_1_n01" to="n01_s_n_1" />
  <trip id="trip_310" type="car" depart="620.0" from="s_n_0_n00" to="n22_s_b_2" />
  <trip id="trip_311" type="car" depart="622.0" from="s_b_1_n21" to="n10_s_w_1" />
  <trip id="trip_312" type="car" depart="624.0" from="s_w_2_n20" to="s_e_0_n02" />
  <trip id="trip_313" type="car" depart="626.0" from="s_n_0_n00" to="s_e_2_n22" />
  <trip id="trip_314" type="car" depart="628.0" from="s_b_1_n21" to="n22_s_b_2" />
  <trip id="trip_315" type="auto" depart="630.0" from="s_b_1_n21" to="s_b_0_n20" />
  <trip id="trip_316" type="auto" depart="632.0" from="s_b_0_n20" to="s_w_0_n00" />
  <trip id="trip_317" type="car" depart="634.0" from="s_n_1_n01" to="s_b_1_n21" />
  <trip id="trip_318" type="bike" depart="636.0" from="s_n_2_n02" to="n22_s_e_2" />
  <trip id="trip_319" type="car" depart="638.0" from="s_n_1_n01" to="s_n_2_n02" />
  <trip id="trip_320" type="car" depart="640.0" from="s_b_0_n20" to="n12_s_e_1" />
  <trip id="trip_321" type="car" depart="642.0" from="s_b_2_n22" to="n21_s_b_1" />
  <trip id="trip_322" type="car" depart="644.0" from="s_w_2_n20" to="s_e_0_n02" />
  <trip id="trip_323" type="bus" depart="646.0" from="s_w_1_n10" to="s_n_1_n01" />
  <trip id="trip_324" type="car" depart="648.0" from="s_w_2_n20" to="n10_s_w_1" />
  <trip id="trip_325" type="car" depart="650.0" from="s_b_0_n20" to="s_e_2_n22" />
  <trip id="trip_326" type="car" depart="652.0" from="s_e_0_n02" to="n02_s_e_0" />
  <trip id="trip_327" type="bus" depart="654.0" from="s_b_1_n21" to="s_n_2_n02" />
  <trip id="trip_328" type="car" depart="656.0" from="s_n_1_n01" to="s_w_1_n10" />
  <trip id="trip_329" type="car" depart="658.0" from="s_w_2_n20" to="n20_s_w_2" />
  <trip id="trip_330" type="car" depart="660.0" from="s_n_1_n01" to="s_e_0_n02" />
  <trip id="trip_331" type="car" depart="662.0" from="s_n_2_n02" to="n02_s_n_2" />
  <trip id="trip_332" type="truck" depart="664.0" from="s_w_0_n00" to="s_e_1_n12" />
  <trip id="trip_333" type="car" depart="666.0" from="s_b_2_n22" to="n01_s_n_1" />
  <trip id="trip_334" type="ambulance" depart="668.0" from="s_n_0_n00" to="n22_s_b_2" />
  <trip id="trip_335" type="bus" depart="670.0" from="s_n_2_n02" to="n20_s_w_2" />
  <trip id="trip_336" type="car" depart="672.0" from="s_e_1_n12" to="s_w_2_n20" />
  <trip id="trip_337" type="police" depart="674.0" from="s_w_0_n00" to="s_n_0_n00" />
  <trip id="trip_338" type="car" depart="676.0" from="s_n_1_n01" to="n02_s_n_2" />
  <trip id="trip_339" type="car" depart="678.0" from="s_n_1_n01" to="n22_s_e_2" />
  <trip id="trip_340" type="car" depart="680.0" from="s_n_2_n02" to="s_b_0_n20" />
  <trip id="trip_341" type="police" depart="682.0" from="s_e_2_n22" to="n12_s_e_1" />
  <trip id="trip_342" type="car" depart="684.0" from="s_e_0_n02" to="s_n_0_n00" />
  <trip id="trip_343" type="car" depart="686.0" from="s_n_0_n00" to="n00_s_w_0" />